rna-c
  PyMOL2.5          3D                             0

 29 30  0  0  0  0  0  0  0  0999 V2000
    5.6210    7.8810   -3.5870 C   0  0  0  0  0  0  0  0  0  0  0  0
    6.7180    6.8890   -3.2580 C   0  0  0  0  0  0  0  0  0  0  0  0
    6.4860    6.3630   -1.9190 O   0  0  0  0  0  0  0  0  0  0  0  0
    6.7760    5.6410   -4.1400 C   0  0  0  0  0  0  0  0  0  0  0  0
    7.3980    5.9080   -5.3900 O   0  0  0  0  0  0  0  0  0  0  0  0
    7.5660    4.7260   -3.2080 C   0  0  0  0  0  0  0  0  0  0  0  0
    6.8740    5.0000   -1.8770 C   0  0  0  0  0  0  0  0  0  0  0  0
    5.6660    4.1580   -1.6470 N   0  0  0  0  0  0  0  0  0  0  0  0
    5.8530    2.8910   -1.1000 C   0  0  0  0  0  0  0  0  0  0  0  0
    7.0010    2.5210   -0.8310 O   0  0  0  0  0  0  0  0  0  0  0  0
    4.7640    2.1080   -0.8830 N   0  0  0  0  0  0  0  0  0  0  0  0
    3.5360    2.5470   -1.1880 C   0  0  0  0  0  0  0  0  0  0  0  0
    2.5080    1.7460   -0.9560 N   0  0  0  0  0  0  0  0  0  0  0  0
    3.3230    3.8470   -1.7510 C   0  0  0  0  0  0  0  0  0  0  0  0
    4.4230    4.6130   -1.9610 C   0  0  0  0  0  0  0  0  0  0  0  0
    4.7564    7.6898   -2.9513 H   0  0  0  0  0  0  0  0  0  0  0  0
    5.9825    8.8944   -3.4126 H   0  0  0  0  0  0  0  0  0  0  0  0
    5.3335    7.7721   -4.6328 H   0  0  0  0  0  0  0  0  0  0  0  0
    7.6380    7.4575   -3.3941 H   0  0  0  0  0  0  0  0  0  0  0  0
    5.8226    5.2206   -4.4601 H   0  0  0  0  0  0  0  0  0  0  0  0
    7.4367    6.8566   -5.5326 H   0  0  0  0  0  0  0  0  0  0  0  0
    7.5700    3.6772   -3.5049 H   0  0  0  0  0  0  0  0  0  0  0  0
    7.5598    4.7643   -1.0632 H   0  0  0  0  0  0  0  0  0  0  0  0
    1.5706    2.0508   -1.1761 H   0  0  0  0  0  0  0  0  0  0  0  0
    2.6610    0.8300   -0.5589 H   0  0  0  0  0  0  0  0  0  0  0  0
    2.3235    4.2042   -1.9992 H   0  0  0  0  0  0  0  0  0  0  0  0
    4.3089    5.6092   -2.3883 H   0  0  0  0  0  0  0  0  0  0  0  0
    9.2663    5.0346   -2.2610 H   0  0  0  0  0  0  0  0  0  0  0  0
    8.9495    5.0854   -3.1658 O   0  0  0  0  0  0  0  0  0  0  0  0
  1  2  1  0  0  0  0
  1 16  1  0  0  0  0
  1 17  1  0  0  0  0
  1 18  1  0  0  0  0
  2  3  1  0  0  0  0
  2  4  1  0  0  0  0
  2 19  1  0  0  0  0
  3  7  1  0  0  0  0
  4  5  1  0  0  0  0
  4  6  1  0  0  0  0
  4 20  1  0  0  0  0
  5 21  1  0  0  0  0
  6  7  1  0  0  0  0
  6 22  1  0  0  0  0
  6 29  1  0  0  0  0
  7  8  1  0  0  0  0
  7 23  1  0  0  0  0
  8  9  1  0  0  0  0
  8 15  1  0  0  0  0
  9 10  2  0  0  0  0
  9 11  1  0  0  0  0
 11 12  2  0  0  0  0
 12 13  1  0  0  0  0
 12 14  1  0  0  0  0
 13 24  1  0  0  0  0
 13 25  1  0  0  0  0
 14 15  2  0  0  0  0
 14 26  1  0  0  0  0
 15 27  1  0  0  0  0
 28 29  1  0  0  0  0
M  END
$$$$
